Circuit: * C:\Users\leonh\OneDrive - HTBLuVA Salzburg\Desktop\HWE\SpaStroWi\LTSPICE Datein SpaStroWi\AD737_schematic_test.asc

ERROR: Node U1:18 is floating and connected to current source G:U1:B4
ERROR: Node N005 is floating and connected to current source G:U1:B2

WARNING: Less than two connections to node URMS.  This node is used by E:U1:R.
u2:vx1: Missing value, assumed 0V @ DC
u1:v4: Missing value, assumed 0V @ DC
u1:2:vib: Missing value, assumed 0V @ DC
u1:v5: Missing value, assumed 0V @ DC
u1:ver: Missing value, assumed 0V @ DC
Direct Newton iteration failed to find .op point.  (Use ".option noopiter" to skip.)
Starting Gmin stepping
Gmin = 10
Gmin = 1.07374
Gmin = 0.115292
Gmin = 0.0123794
Gmin = 0.00132923
vernier = 0.5
vernier = 0.25
vernier = 0.125
vernier = 0.0625
Gmin = 0.00100083
vernier = 0.03125
vernier = 0.015625
vernier = 0.0078125
vernier = 0.00390625
vernier = 0.00195313
Gmin = 0.00100083
vernier = 0.000976563
vernier = 0.000488281
Gmin = 0
Gmin stepping succeeded in finding the operating point.




Date: Mon Dec 14 12:39:04 2020
Total elapsed time: 1.691 seconds.

tnom = 27
temp = 27
method = modified trap
totiter = 6844
traniter = 5257
tranpoints = 1751
accept = 1360
rejected = 391
matrix size = 108
fillins = 95
solver = Normal
Thread vector: 34.0/26.2[2] 1.7/2.0[1] 8.7/5.2[2] 1.7/7.0[1]  2592/500
Matrix Compiler1: 8.38 KB object code size  1.7/0.8/[0.4]
Matrix Compiler2: 9.43 KB object code size  4.9/8.6/[1.9]

