Circuit: * C:\Users\leonh\OneDrive - HTBLuVA Salzburg\Desktop\HWE\SpaStroWi\LTSPICE Datein SpaStroWi\AD736_testing.asc

u1:1:vib: Missing value, assumed 0V @ DC
u1:v4: Missing value, assumed 0V @ DC
u1:3:vib: Missing value, assumed 0V @ DC
u1:v5: Missing value, assumed 0V @ DC
Direct Newton iteration for .op point succeeded.
Changing Tseed to 1e-008
Heightened Def Con from 7.09014e-008 to 7.49014e-008
Heightened Def Con from 1.65737e-007 to 1.66862e-007
Heightened Def Con from 3.12917e-007 to 3.15042e-007
Heightened Def Con from 7.20982e-007 to 7.21984e-007
Heightened Def Con from 7.25669e-007 to 7.26794e-007
Heightened Def Con from 7.28339e-007 to 7.29464e-007
Heightened Def Con from 7.38826e-007 to 7.42951e-007
Heightened Def Con from 7.43103e-007 to 7.44228e-007
Heightened Def Con from 7.46685e-007 to 7.55701e-007
Heightened Def Con from 7.56974e-007 to 7.57006e-007
Heightened Def Con from 7.57144e-007 to 7.57175e-007
Heightened Def Con from 7.57177e-007 to 7.57192e-007
Heightened Def Con from 7.57226e-007 to 7.59351e-007
Heightened Def Con from 7.60532e-007 to 7.62548e-007
Heightened Def Con from 7.64841e-007 to 7.64888e-007
Heightened Def Con from 7.65109e-007 to 7.78125e-007
Heightened Def Con from 7.78297e-007 to 7.79422e-007
Heightened Def Con from 7.80661e-007 to 7.80692e-007
Heightened Def Con from 7.82249e-007 to 7.83374e-007
Heightened Def Con from 7.83496e-007 to 7.84621e-007
Heightened Def Con from 7.84977e-007 to 7.85008e-007
Heightened Def Con from 7.85009e-007 to 7.86009e-007
Heightened Def Con from 7.86257e-007 to 7.86523e-007
Heightened Def Con from 7.87609e-007 to 7.88734e-007
Heightened Def Con from 7.89396e-007 to 7.89428e-007
Heightened Def Con from 7.89876e-007 to 7.91891e-007
Heightened Def Con from 7.95772e-007 to 7.96774e-007
Heightened Def Con from 7.96867e-007 to 7.97992e-007
Heightened Def Con from 7.98251e-007 to 7.99267e-007
Heightened Def Con from 7.99345e-007 to 8.01361e-007
Heightened Def Con from 8.01703e-007 to 8.02828e-007
Heightened Def Con from 8.03562e-007 to 8.04578e-007
Heightened Def Con from 8.04901e-007 to 8.05042e-007
Heightened Def Con from 8.05429e-007 to 8.08429e-007
Heightened Def Con from 8.0847e-007 to 8.10595e-007
Heightened Def Con from 8.10655e-007 to 8.10671e-007
Heightened Def Con from 8.10892e-007 to 8.12017e-007
Heightened Def Con from 8.1203e-007 to 8.14045e-007
Heightened Def Con from 8.1504e-007 to 8.15056e-007
Heightened Def Con from 8.15079e-007 to 8.1522e-007
Heightened Def Con from 8.15235e-007 to 8.15361e-007
Heightened Def Con from 8.15411e-007 to 8.17536e-007
Heightened Def Con from 8.17657e-007 to 8.18657e-007
Heightened Def Con from 8.18872e-007 to 8.21872e-007
Heightened Def Con from 8.22282e-007 to 8.22298e-007
Heightened Def Con from 8.22353e-007 to 8.23369e-007
Heightened Def Con from 8.23627e-007 to 8.23628e-007
Heightened Def Con from 8.23628e-007 to 8.23659e-007
Heightened Def Con from 8.23659e-007 to 8.23675e-007
Heightened Def Con from 8.23702e-007 to 8.24717e-007
Heightened Def Con from 8.24965e-007 to 8.24965e-007
Heightened Def Con from 8.25105e-007 to 8.25121e-007
Heightened Def Con from 8.25384e-007 to 8.254e-007
Heightened Def Con from 8.25483e-007 to 8.25484e-007
Heightened Def Con from 8.25495e-007 to 8.25511e-007
Heightened Def Con from 8.25679e-007 to 8.2571e-007
Heightened Def Con from 8.25724e-007 to 8.25725e-007
Heightened Def Con from 8.25744e-007 to 8.26759e-007
Heightened Def Con from 8.27127e-007 to 8.33127e-007
Heightened Def Con from 8.33459e-007 to 8.33459e-007
Heightened Def Con from 8.33474e-007 to 8.34489e-007
Heightened Def Con from 8.34572e-007 to 8.34619e-007
Heightened Def Con from 8.34672e-007 to 8.34719e-007
Heightened Def Con from 8.35082e-007 to 8.36082e-007
Heightened Def Con from 8.36153e-007 to 8.36168e-007
Heightened Def Con from 8.36211e-007 to 8.36242e-007
Heightened Def Con from 8.36493e-007 to 8.36525e-007
Heightened Def Con from 8.36653e-007 to 8.36669e-007
Heightened Def Con from 8.36795e-007 to 8.36826e-007
Heightened Def Con from 8.36854e-007 to 8.3687e-007
Heightened Def Con from 8.37023e-007 to 8.38148e-007
Heightened Def Con from 8.38173e-007 to 8.42189e-007
Heightened Def Con from 8.42275e-007 to 8.424e-007
Heightened Def Con from 8.42404e-007 to 8.42529e-007
Heightened Def Con from 8.42529e-007 to 8.4253e-007
Heightened Def Con from 8.4253e-007 to 8.42671e-007
Heightened Def Con from 8.42882e-007 to 8.42913e-007
Heightened Def Con from 8.42914e-007 to 8.4293e-007
Heightened Def Con from 8.43177e-007 to 8.43177e-007
Heightened Def Con from 8.43183e-007 to 8.43215e-007
Heightened Def Con from 8.43306e-007 to 8.43306e-007
Heightened Def Con from 8.43348e-007 to 8.43473e-007
Heightened Def Con from 8.43579e-007 to 8.44595e-007
Heightened Def Con from 8.44721e-007 to 8.45737e-007
Heightened Def Con from 8.45768e-007 to 8.46034e-007
Heightened Def Con from 8.46078e-007 to 8.47203e-007
Heightened Def Con from 8.4731e-007 to 8.47435e-007
Heightened Def Con from 8.47612e-007 to 8.47753e-007
Heightened Def Con from 8.48075e-007 to 8.48216e-007
Heightened Def Con from 8.48244e-007 to 8.48244e-007
Heightened Def Con from 8.48335e-007 to 8.48351e-007
Heightened Def Con from 8.48601e-007 to 8.48726e-007
Heightened Def Con from 8.48831e-007 to 8.48972e-007
Heightened Def Con from 8.49052e-007 to 8.49177e-007
Heightened Def Con from 8.49382e-007 to 8.49398e-007
Heightened Def Con from 8.49621e-007 to 8.49762e-007
Heightened Def Con from 8.50011e-007 to 8.50011e-007
Heightened Def Con from 8.50081e-007 to 8.50081e-007
Heightened Def Con from 8.50208e-007 to 8.50348e-007
Heightened Def Con from 8.50457e-007 to 8.50488e-007
Heightened Def Con from 8.50759e-007 to 8.509e-007
Heightened Def Con from 8.50938e-007 to 8.50954e-007
Heightened Def Con from 8.50959e-007 to 8.5096e-007
Heightened Def Con from 8.5096e-007 to 8.50961e-007
Heightened Def Con from 8.50963e-007 to 8.50964e-007
Heightened Def Con from 8.51128e-007 to 8.5116e-007
Heightened Def Con from 8.51231e-007 to 8.51247e-007
Heightened Def Con from 8.51251e-007 to 8.51267e-007
Heightened Def Con from 8.51308e-007 to 8.51308e-007
Heightened Def Con from 8.5131e-007 to 8.51575e-007
Heightened Def Con from 8.51626e-007 to 8.51627e-007
Heightened Def Con from 8.51856e-007 to 8.51996e-007
Heightened Def Con from 8.52153e-007 to 8.52418e-007
Heightened Def Con from 8.52663e-007 to 8.54678e-007
Heightened Def Con from 8.54767e-007 to 8.57783e-007
Heightened Def Con from 8.58015e-007 to 8.6014e-007
Heightened Def Con from 8.60413e-007 to 8.63429e-007
Heightened Def Con from 8.63623e-007 to 8.64623e-007
Heightened Def Con from 8.64633e-007 to 8.65008e-007
Heightened Def Con from 8.65506e-007 to 8.72522e-007
Heightened Def Con from 8.72948e-007 to 8.72948e-007
Heightened Def Con from 8.73026e-007 to 8.75027e-007
Heightened Def Con from 8.75056e-007 to 8.76072e-007
Heightened Def Con from 8.76166e-007 to 8.80166e-007
Heightened Def Con from 8.80224e-007 to 8.82224e-007
Heightened Def Con from 8.83697e-007 to 8.86697e-007
Heightened Def Con from 8.87272e-007 to 8.88288e-007
Heightened Def Con from 8.88445e-007 to 8.89461e-007
Heightened Def Con from 8.89466e-007 to 8.92466e-007
Heightened Def Con from 8.92943e-007 to 8.94943e-007
Heightened Def Con from 8.95161e-007 to 8.95177e-007
Heightened Def Con from 8.95177e-007 to 8.97177e-007
Heightened Def Con from 8.98991e-007 to 8.99022e-007
Heightened Def Con from 8.99069e-007 to 9.00194e-007
Heightened Def Con from 9.00429e-007 to 9.02429e-007
Heightened Def Con from 9.03143e-007 to 9.05143e-007
Heightened Def Con from 9.05799e-007 to 9.07799e-007
Heightened Def Con from 9.10558e-007 to 9.11558e-007
Heightened Def Con from 9.11642e-007 to 9.11643e-007
Heightened Def Con from 9.11669e-007 to 9.12669e-007
Heightened Def Con from 9.12693e-007 to 9.12833e-007
Heightened Def Con from 9.12838e-007 to 9.12869e-007
Heightened Def Con from 9.12916e-007 to 9.14916e-007
Heightened Def Con from 9.25731e-007 to 9.26731e-007
Heightened Def Con from 9.26752e-007 to 9.26752e-007
Heightened Def Con from 9.26783e-007 to 9.26783e-007
Heightened Def Con from 9.2681e-007 to 9.26811e-007
Heightened Def Con from 9.26813e-007 to 9.26813e-007
Heightened Def Con from 9.26858e-007 to 9.26859e-007
Heightened Def Con from 9.2686e-007 to 9.2686e-007
Heightened Def Con from 9.26889e-007 to 9.28889e-007
Heightened Def Con from 9.2898e-007 to 9.29105e-007
Heightened Def Con from 9.2918e-007 to 9.2918e-007
Heightened Def Con from 9.29215e-007 to 9.29216e-007
Heightened Def Con from 9.29328e-007 to 9.29328e-007
Heightened Def Con from 9.29328e-007 to 9.29359e-007
Heightened Def Con from 9.29379e-007 to 9.2941e-007
Heightened Def Con from 9.29417e-007 to 9.30432e-007
Heightened Def Con from 9.3052e-007 to 9.3152e-007
Heightened Def Con from 9.31604e-007 to 9.33604e-007
Heightened Def Con from 9.60895e-007 to 9.61895e-007
Heightened Def Con from 9.61896e-007 to 9.61896e-007
Heightened Def Con from 9.61896e-007 to 9.63021e-007
Heightened Def Con from 9.63115e-007 to 9.63115e-007
Heightened Def Con from 9.63117e-007 to 9.63367e-007
Heightened Def Con from 9.63461e-007 to 9.65461e-007
Heightened Def Con from 9.83339e-007 to 9.83589e-007
Heightened Def Con from 9.83685e-007 to 9.8381e-007
Heightened Def Con from 9.83811e-007 to 9.84061e-007
Heightened Def Con from 9.84592e-007 to 9.84717e-007
Heightened Def Con from 9.84722e-007 to 9.85847e-007
Heightened Def Con from 9.86381e-007 to 9.87396e-007
Heightened Def Con from 9.874e-007 to 9.87525e-007
Heightened Def Con from 9.87528e-007 to 9.87528e-007
Heightened Def Con from 9.87528e-007 to 9.88653e-007
Heightened Def Con from 9.9058e-007 to 9.90581e-007
Heightened Def Con from 9.90582e-007 to 9.90707e-007
Heightened Def Con from 9.90708e-007 to 9.91833e-007
Heightened Def Con from 9.92091e-007 to 9.92107e-007
Heightened Def Con from 9.92116e-007 to 9.92241e-007
Heightened Def Con from 9.92241e-007 to 9.94241e-007
Heightened Def Con from 1.01803e-006 to 1.02103e-006
Heightened Def Con from 1.02543e-006 to 1.02743e-006
Heightened Def Con from 1.03624e-006 to 1.03824e-006
Heightened Def Con from 1.03884e-006 to 1.04184e-006
Heightened Def Con from 1.04188e-006 to 1.04188e-006
Heightened Def Con from 1.04188e-006 to 1.0419e-006
Heightened Def Con from 1.0419e-006 to 1.0419e-006
Heightened Def Con from 1.0419e-006 to 1.0439e-006
Heightened Def Con from 1.04436e-006 to 1.04536e-006
Heightened Def Con from 1.04536e-006 to 1.04736e-006
Heightened Def Con from 1.04737e-006 to 1.04937e-006
Heightened Def Con from 1.04967e-006 to 1.04967e-006
Heightened Def Con from 1.04967e-006 to 1.05167e-006
Heightened Def Con from 1.08337e-006 to 1.0845e-006
Heightened Def Con from 1.08453e-006 to 1.08653e-006
Heightened Def Con from 1.10083e-006 to 1.10283e-006
Heightened Def Con from 1.10288e-006 to 1.10488e-006
Heightened Def Con from 1.10914e-006 to 1.10939e-006
Heightened Def Con from 1.10942e-006 to 1.10942e-006
Heightened Def Con from 1.10942e-006 to 1.11142e-006
Heightened Def Con from 1.12094e-006 to 1.12097e-006
Heightened Def Con from 1.12101e-006 to 1.12104e-006
Heightened Def Con from 1.12109e-006 to 1.12221e-006
Heightened Def Con from 1.12225e-006 to 1.12225e-006
Heightened Def Con from 1.12234e-006 to 1.12434e-006
Heightened Def Con from 1.13384e-006 to 1.13584e-006
Heightened Def Con from 1.14189e-006 to 1.14389e-006
Heightened Def Con from 1.14987e-006 to 1.15187e-006
Heightened Def Con from 1.15787e-006 to 1.15888e-006
Heightened Def Con from 1.1589e-006 to 1.1589e-006
Heightened Def Con from 1.1589e-006 to 1.15903e-006
Heightened Def Con from 1.15903e-006 to 1.16103e-006
Heightened Def Con from 1.18106e-006 to 1.18106e-006
Heightened Def Con from 1.18106e-006 to 1.18306e-006
Heightened Def Con from 1.18556e-006 to 1.18559e-006
Heightened Def Con from 1.1856e-006 to 1.18563e-006
Heightened Def Con from 1.18565e-006 to 1.18568e-006
Heightened Def Con from 1.18574e-006 to 1.18575e-006
Heightened Def Con from 1.18575e-006 to 1.18578e-006
Heightened Def Con from 1.18582e-006 to 1.18782e-006
Heightened Def Con from 1.18783e-006 to 1.18783e-006
Heightened Def Con from 1.18783e-006 to 1.18783e-006
Heightened Def Con from 1.18783e-006 to 1.18783e-006
Heightened Def Con from 1.18783e-006 to 1.18783e-006
Heightened Def Con from 1.18783e-006 to 1.18883e-006
Heightened Def Con from 1.18883e-006 to 1.19083e-006
Heightened Def Con from 1.21563e-006 to 1.21763e-006
Heightened Def Con from 1.22364e-006 to 1.22464e-006
Heightened Def Con from 1.22466e-006 to 1.2248e-006
Heightened Def Con from 1.22487e-006 to 1.22687e-006
Heightened Def Con from 1.23638e-006 to 1.23641e-006
Heightened Def Con from 1.23643e-006 to 1.23843e-006
Heightened Def Con from 1.24195e-006 to 1.24295e-006
Heightened Def Con from 1.24296e-006 to 1.24299e-006
Heightened Def Con from 1.24302e-006 to 1.24304e-006
Heightened Def Con from 1.24304e-006 to 1.24504e-006
Heightened Def Con from 1.2484e-006 to 1.2494e-006
Heightened Def Con from 1.2494e-006 to 1.2514e-006
Heightened Def Con from 1.2524e-006 to 1.2544e-006
Heightened Def Con from 1.2579e-006 to 1.2599e-006
Heightened Def Con from 1.28505e-006 to 1.28705e-006
Heightened Def Con from 1.2888e-006 to 1.2908e-006
Heightened Def Con from 1.29296e-006 to 1.29496e-006
Heightened Def Con from 1.29697e-006 to 1.29897e-006
Heightened Def Con from 1.30098e-006 to 1.302e-006
Heightened Def Con from 1.3021e-006 to 1.30213e-006
Heightened Def Con from 1.31584e-006 to 1.31587e-006
Heightened Def Con from 1.3159e-006 to 1.3179e-006
Heightened Def Con from 1.31942e-006 to 1.32043e-006
Heightened Def Con from 1.32074e-006 to 1.32274e-006
Heightened Def Con from 1.323e-006 to 1.325e-006
Heightened Def Con from 1.32584e-006 to 1.32784e-006
Heightened Def Con from 1.33401e-006 to 1.33601e-006
Heightened Def Con from 1.33858e-006 to 1.33959e-006
Heightened Def Con from 1.33986e-006 to 1.34186e-006
Heightened Def Con from 1.3474e-006 to 1.34841e-006
Heightened Def Con from 1.34846e-006 to 1.34946e-006
Heightened Def Con from 1.34946e-006 +to 1.34971e-006
Heightened Def Con from 1.34975e-006 to 1.35076e-006
Heightened Def Con from 1.35092e-006 to 1.35194e-006
Heightened Def Con from 1.35195e-006 to 1.35196e-006
Heightened Def Con from 1.35196e-006 to 1.35396e-006
Heightened Def Con from 1.36627e-006 to 1.36827e-006
Heightened Def Con from 1.37377e-006 to 1.37577e-006
Heightened Def Con from 1.3768e-006 to 1.3788e-006
Heightened Def Con from 1.38133e-006 to 1.38333e-006
Heightened Def Con from 1.39497e-006 to 1.39499e-006
Heightened Def Con from 1.39499e-006 to 1.39499e-006
Heightened Def Con from 1.39499e-006 to 1.39699e-006
Heightened Def Con from 1.40452e-006 to 1.40652e-006
Heightened Def Con from 1.40874e-006 to 1.40974e-006
Heightened Def Con from 1.40974e-006 to 1.40974e-006
Heightened Def Con from 1.40974e-006 to 1.41174e-006
Heightened Def Con from 1.41284e-006 to 1.41484e-006
Heightened Def Con from 1.42515e-006 to 1.42518e-006
Heightened Def Con from 1.42519e-006 to 1.42719e-006
Heightened Def Con from 1.43117e-006 to 1.43317e-006
Heightened Def Con from 1.43519e-006 to 1.43719e-006
Heightened Def Con from 1.43926e-006 to 1.44126e-006
Heightened Def Con from 1.45905e-006 to 1.46105e-006
Heightened Def Con from 1.46118e-006 to 1.46131e-006
Heightened Def Con from 1.46135e-006 to 1.46335e-006
Heightened Def Con from 1.46339e-006 to 1.46364e-006
Heightened Def Con from 1.46368e-006 to 1.46568e-006
Heightened Def Con from 1.46769e-006 to 1.46769e-006
Heightened Def Con from 1.46769e-006 to 1.46869e-006
Heightened Def Con from 1.46876e-006 to 1.47076e-006
Heightened Def Con from 1.47676e-006 to 1.47876e-006
Heightened Def Con from 1.49178e-006 to 1.4918e-006
Heightened Def Con from 1.4918e-006 to 1.49183e-006
Heightened Def Con from 1.49184e-006 to 1.49286e-006
Heightened Def Con from 1.49286e-006 to 1.49286e-006
Heightened Def Con from 1.49296e-006 to 1.49296e-006
Heightened Def Con from 1.49298e-006 to 1.493e-006
Heightened Def Con from 1.49302e-006 to 1.49502e-006
Heightened Def Con from 1.49534e-006 to 1.49734e-006
Heightened Def Con from 1.49739e-006 to 1.49939e-006
Heightened Def Con from 1.49969e-006 to 1.49969e-006
Heightened Def Con from 1.49971e-006 to 1.50171e-006
Heightened Def Con from 1.54209e-006 to 1.54212e-006
Heightened Def Con from 1.54217e-006 to 1.54229e-006
Heightened Def Con from 1.5423e-006 to 1.5423e-006
Heightened Def Con from 1.5423e-006 to 1.5443e-006
Heightened Def Con from 1.54502e-006 to 1.54502e-006
Heightened Def Con from 1.54502e-006 to 1.54502e-006
Heightened Def Con from 1.54502e-006 to 1.54702e-006
Heightened Def Con from 1.55037e-006 to 1.55037e-006
Heightened Def Con from 1.55041e-006 to 1.55041e-006
Heightened Def Con from 1.55041e-006 to 1.55241e-006
Heightened Def Con from 1.56247e-006 to 1.56547e-006
Heightened Def Con from 1.56819e-006 to 1.57019e-006
Heightened Def Con from 1.57153e-006 to 1.57253e-006
Heightened Def Con from 1.57254e-006 to 1.57255e-006
Heightened Def Con from 1.57255e-006 to 1.57455e-006
Heightened Def Con from 1.57816e-006 to 1.57816e-006
Heightened Def Con from 1.57816e-006 to 1.57916e-006
Heightened Def Con from 1.57921e-006 to 1.58121e-006
Heightened Def Con from 1.58123e-006 to 1.58323e-006
Heightened Def Con from 1.59606e-006 to 1.59706e-006
Heightened Def Con from 1.59718e-006 to 1.59918e-006
Heightened Def Con from 1.60269e-006 to 1.60269e-006
Heightened Def Con from 1.60275e-006 to 1.60275e-006
Heightened Def Con from 1.6028e-006 to 1.6048e-006
Heightened Def Con from 1.60936e-006 to 1.60936e-006
Heightened Def Con from 1.60936e-006 to 1.60936e-006
Heightened Def Con from 1.60942e-006 to 1.61142e-006
Heightened Def Con from 1.62436e-006 to 1.62736e-006
Heightened Def Con from 1.62772e-006 to 1.62972e-006
Heightened Def Con from 1.6315e-006 to 1.6335e-006
Heightened Def Con from 1.6355e-006 to 1.6365e-006
Heightened Def Con from 1.63659e-006 to 1.63859e-006
Heightened Def Con from 1.64007e-006 to 1.64207e-006
Heightened Def Con from 1.64234e-006 to 1.64234e-006
Heightened Def Con from 1.64237e-006 to 1.64437e-006
Heightened Def Con from 1.65873e-006 to 1.66073e-006
Heightened Def Con from 1.66135e-006 to 1.66135e-006
Heightened Def Con from 1.66135e-006 to 1.66135e-006
Heightened Def Con from 1.66135e-006 to 1.66335e-006
Heightened Def Con from 1.6671e-006 to 1.6691e-006
Heightened Def Con from 1.66967e-006 to 1.67079e-006
Heightened Def Con from 1.6746e-006 to 1.6766e-006
Heightened Def Con from 1.67671e-006 to 1.67671e-006
Heightened Def Con from 1.67673e-006 to 1.67873e-006
Heightened Def Con from 1.70349e-006 to 1.70649e-006
Heightened Def Con from 1.71505e-006 to 1.71505e-006
Heightened Def Con from 1.71515e-006 to 1.71715e-006
Heightened Def Con from 1.71723e-006 to 1.71825e-006
Heightened Def Con from 1.71872e-006 to 1.72072e-006
Heightened Def Con from 1.72283e-006 to 1.72483e-006
Heightened Def Con from 1.729e-006 to 1.729e-006
Heightened Def Con from 1.72918e-006 to 1.73018e-006
Heightened Def Con from 1.73023e-006 to 1.73035e-006
Heightened Def Con from 1.73042e-006 to 1.73142e-006
Heightened Def Con from 1.73146e-006 to 1.73346e-006
Heightened Def Con from 1.73346e-006 to 1.73459e-006
Heightened Def Con from 1.73463e-006 to 1.73463e-006
Heightened Def Con from 1.73468e-006 to 1.73468e-006
Heightened Def Con from 1.73468e-006 to 1.73668e-006
Heightened Def Con from 1.74007e-006 to 1.74207e-006
Heightened Def Con from 1.74208e-006 to 1.74408e-006
Heightened Def Con from 1.76632e-006 to 1.76732e-006
Heightened Def Con from 1.76732e-006 to 1.76932e-006
Heightened Def Con from 1.77591e-006 to 1.77592e-006
Heightened Def Con from 1.77611e-006 to 1.77711e-006
Heightened Def Con from 1.77712e-006 to 1.77712e-006
Heightened Def Con from 1.77714e-006 to 1.77814e-006
Heightened Def Con from 1.77821e-006 to 1.77821e-006
Heightened Def Con from 1.77847e-006 to 1.77947e-006
Heightened Def Con from 1.77951e-006 to 1.77951e-006
Heightened Def Con from 1.77951e-006 to 1.77951e-006
Heightened Def Con from 1.77962e-006 to 1.77962e-006
Heightened Def Con from 1.77962e-006 to 1.78062e-006
Heightened Def Con from 1.7807e-006 to 1.7807e-006
Heightened Def Con from 1.78074e-006 to 1.78074e-006
Heightened Def Con from 1.78075e-006 to 1.78175e-006
Heightened Def Con from 1.78177e-006 to 1.78177e-006
Heightened Def Con from 1.78184e-006 to 1.78184e-006
Heightened Def Con from 1.7819e-006 to 1.7819e-006
Heightened Def Con from 1.7819e-006 to 1.7819e-006
Heightened Def Con from 1.78193e-006 to 1.78193e-006
Heightened Def Con from 1.78193e-006 to 1.78193e-006
Heightened Def Con from 1.782e-006 to 1.782e-006
Heightened Def Con from 1.78204e-006 to 1.78204e-006
Heightened Def Con from 1.78205e-006 to 1.78206e-006
Heightened Def Con from 1.7821e-006 to 1.7821e-006
Heightened Def Con from 1.7822e-006 to 1.7832e-006
Heightened Def Con from 1.78323e-006 to 1.78523e-006
Heightened Def Con from 1.80405e-006 to 1.80505e-006
Heightened Def Con from 1.80506e-006 to 1.80506e-006
Heightened Def Con from 1.80508e-006 to 1.80509e-006
Heightened Def Con from 1.80509e-006 to 1.8051e-006
Heightened Def Con from 1.80512e-006 to 1.80712e-006
Heightened Def Con from 1.82026e-006 to 1.82126e-006
Heightened Def Con from 1.82131e-006 to 1.82131e-006
Heightened Def Con from 1.82132e-006 to 1.82132e-006
Heightened Def Con from 1.82135e-006 to 1.82235e-006
Heightened Def Con from 1.82235e-006 to 1.82336e-006
Heightened Def Con from 1.82341e-006 to 1.82441e-006
Heightened Def Con from 1.82449e-006 to 1.82649e-006
Heightened Def Con from 1.83249e-006 to 1.83349e-006
Heightened Def Con from 1.83352e-006 to 1.83552e-006
Heightened Def Con from 1.83558e-006 to 1.83758e-006
Heightened Def Con from 1.84359e-006 to 1.84459e-006
Heightened Def Con from 1.84475e-006 to 1.84675e-006
Heightened Def Con from 1.85276e-006 to 1.85476e-006
Heightened Def Con from 1.86393e-006 to 1.86593e-006
Heightened Def Con from 1.86603e-006 to 1.86803e-006
Heightened Def Con from 1.87506e-006 to 1.87706e-006
Heightened Def Con from 1.89023e-006 to 1.89223e-006
Heightened Def Con from 1.90625e-006 to 1.90825e-006
Heightened Def Con from 1.91025e-006 to 1.91225e-006
Heightened Def Con from 1.92757e-006 to 1.92957e-006
Heightened Def Con from 1.94533e-006 to 1.94733e-006
Heightened Def Con from 1.97601e-006 to 1.97801e-006
Heightened Def Con from 2.03442e-006 to 2.03642e-006
Heightened Def Con from 2.03678e-006 to 2.03878e-006
Heightened Def Con from 2.04458e-006 to 2.04658e-006
Heightened Def Con from 2.04862e-006 to 2.05062e-006
Heightened Def Con from 2.07048e-006 to 2.07248e-006
Heightened Def Con from 2.07731e-006 to 2.07931e-006
Heightened Def Con from 2.08606e-006 to 2.08806e-006
Heightened Def Con from 2.08818e-006 to 2.09018e-006
Heightened Def Con from 2.09653e-006 to 2.09753e-006
Heightened Def Con from 2.09762e-006 to 2.09962e-006
Heightened Def Con from 2.10003e-006 to 2.10203e-006
Heightened Def Con from 2.10268e-006 to 2.10468e-006
Heightened Def Con from 2.10851e-006 to 2.11051e-006
Heightened Def Con from 2.11536e-006 to 2.11549e-006
Heightened Def Con from 2.11549e-006 to 2.11749e-006
Heightened Def Con from 2.13014e-006 to 2.13214e-006
Heightened Def Con from 2.14162e-006 to 2.14362e-006
Heightened Def Con from 2.15217e-006 to 2.15217e-006
Heightened Def Con from 2.15217e-006 to 2.15517e-006
Heightened Def Con from 2.15549e-006 to 2.15849e-006
Heightened Def Con from 2.15853e-006 to 2.16153e-006
Heightened Def Con from 2.16166e-006 to 2.16366e-006
Heightened Def Con from 2.16513e-006 to 2.16713e-006
Heightened Def Con from 2.16719e-006 to 2.16919e-006
Heightened Def Con from 2.16981e-006 to 2.17181e-006
Heightened Def Con from 2.17206e-006 to 2.17406e-006
Heightened Def Con from 2.18619e-006 to 2.18721e-006
Heightened Def Con from 2.18721e-006 to 2.18921e-006
Heightened Def Con from 2.19515e-006 to 2.19715e-006
Heightened Def Con from 2.21693e-006 to 2.21893e-006
Heightened Def Con from 2.21911e-006 to 2.22111e-006
Heightened Def Con from 2.24053e-006 to 2.24153e-006
Heightened Def Con from 2.24157e-006 to 2.24357e-006
Heightened Def Con from 2.2443e-006 to 2.2463e-006
Heightened Def Con from 2.251e-006 to 2.253e-006
Heightened Def Con from 2.255e-006 to 2.255e-006
Heightened Def Con from 2.25502e-006 to 2.25602e-006
Heightened Def Con from 2.25603e-006 to 2.25803e-006
Heightened Def Con from 2.2602e-006 to 2.2612e-006
Heightened Def Con from 2.26125e-006 to 2.26325e-006
Heightened Def Con from 2.29131e-006 to 2.29331e-006
Heightened Def Con from 2.29388e-006 to 2.29388e-006
Heightened Def Con from 2.29391e-006 to 2.29591e-006
Heightened Def Con from 2.29993e-006 to 2.29993e-006
Heightened Def Con from 2.29995e-006 to 2.30195e-006
Heightened Def Con from 2.30578e-006 to 2.30778e-006
Heightened Def Con from 2.31217e-006 to 2.31417e-006
Heightened Def Con from 2.31452e-006 to 2.31652e-006
Heightened Def Con from 2.32339e-006 to 2.32539e-006
Heightened Def Con from 2.32563e-006 to 2.32575e-006
Heightened Def Con from 2.32576e-006 to 2.32776e-006
Heightened Def Con from 2.32991e-006 to 2.33191e-006
Heightened Def Con from 2.34485e-006 to 2.34685e-006
Heightened Def Con from 2.34922e-006 to 2.35122e-006
Heightened Def Con from 2.35407e-006 to 2.35607e-006
Heightened Def Con from 2.35628e-006 to 2.35828e-006
Heightened Def Con from 2.35876e-006 to 2.36076e-006
Heightened Def Con from 2.36433e-006 to 2.36633e-006
Heightened Def Con from 2.38219e-006 to 2.38419e-006
Heightened Def Con from 2.38591e-006 to 2.38791e-006
Heightened Def Con from 2.38944e-006 to 2.39144e-006
Heightened Def Con from 2.39155e-006 to 2.39355e-006
Heightened Def Con from 2.40328e-006 to 2.40528e-006
Heightened Def Con from 2.40732e-006 to 2.40932e-006
Heightened Def Con from 2.40935e-006 to 2.41135e-006
Heightened Def Con from 2.41735e-006 to 2.41935e-006
Heightened Def Con from 2.42647e-006 to 2.42647e-006
Heightened Def Con from 2.42647e-006 to 2.42672e-006
Heightened Def Con from 2.42673e-006 to 2.42673e-006
Heightened Def Con from 2.42673e-006 to 2.42873e-006
Heightened Def Con from 2.43479e-006 to 2.43479e-006
Heightened Def Con from 2.43479e-006 to 2.43479e-006
Heightened Def Con from 2.43479e-006 to 2.4348e-006
Heightened Def Con from 2.43485e-006 to 2.43485e-006
Heightened Def Con from 2.43501e-006 to 2.43701e-006
Heightened Def Con from 2.43705e-006 to 2.43905e-006
Heightened Def Con from 2.45134e-006 to 2.45334e-006
Heightened Def Con from 2.51236e-006 to 2.51236e-006
Heightened Def Con from 2.51236e-006 to 2.51237e-006
Heightened Def Con from 2.51238e-006 to 2.51238e-006
Heightened Def Con from 2.51241e-006 to 2.51243e-006
Heightened Def Con from 2.51243e-006 to 2.51243e-006
Heightened Def Con from 2.51245e-006 to 2.51345e-006
Heightened Def Con from 2.51348e-006 to 2.51461e-006
Heightened Def Con from 2.51471e-006 to 2.51471e-006
Heightened Def Con from 2.5148e-006 to 2.51482e-006
Heightened Def Con from 2.51486e-006 to 2.51588e-006
Heightened Def Con from 2.51588e-006 to 2.51688e-006
Heightened Def Con from 2.51694e-006 to 2.51694e-006
Heightened Def Con from 2.51694e-006 to 2.51694e-006
Heightened Def Con from 2.51694e-006 to 2.51697e-006
Heightened Def Con from 2.51698e-006 to 2.51698e-006
Heightened Def Con from 2.51698e-006 to 2.51698e-006
Heightened Def Con from 2.51699e-006 to 2.51799e-006
Heightened Def Con from 2.51799e-006 to 2.51899e-006
Heightened Def Con from 2.51901e-006 to 2.51904e-006
Heightened Def Con from 2.51912e-006 to 2.51915e-006
Heightened Def Con from 2.51919e-006 to 2.51919e-006
Heightened Def Con from 2.51924e-006 to 2.52024e-006
Heightened Def Con from 2.52036e-006 to 2.52036e-006
Heightened Def Con from 2.52037e-006 to 2.52037e-006
Heightened Def Con from 2.52041e-006 to 2.52041e-006
Heightened Def Con from 2.52041e-006 to 2.52241e-006
Heightened Def Con from 2.52245e-006 to 2.52445e-006
Heightened Def Con from 2.53147e-006 to 2.53347e-006
Heightened Def Con from 2.55351e-006 to 2.55351e-006
Heightened Def Con from 2.55358e-006 to 2.5546e-006
Heightened Def Con from 2.55464e-006 to 2.55664e-006
Heightened Def Con from 2.5697e-006 to 2.5707e-006
Heightened Def Con from 2.57076e-006 to 2.57079e-006
Heightened Def Con from 2.57083e-006 to 2.57185e-006
Heightened Def Con from 2.57199e-006 to 2.57299e-006
Heightened Def Con from 2.57304e-006 to 2.57504e-006
Heightened Def Con from 2.59882e-006 to 2.60082e-006
Heightened Def Con from 2.60107e-006 to 2.60119e-006
Heightened Def Con from 2.60143e-006 to 2.60343e-006
Heightened Def Con from 2.61298e-006 to 2.61498e-006
Heightened Def Con from 2.62243e-006 to 2.62443e-006
Heightened Def Con from 2.63055e-006 to 2.63255e-006
Heightened Def Con from 2.63268e-006 to 2.63468e-006
Heightened Def Con from 2.64068e-006 to 2.64268e-006
Heightened Def Con from 2.67668e-006 to 2.67868e-006
Heightened Def Con from 2.68476e-006 to 2.68476e-006
Heightened Def Con from 2.6849e-006 to 2.6869e-006
Heightened Def Con from 2.6932e-006 to 2.6952e-006
Heightened Def Con from 2.7082e-006 to 2.70833e-006
Heightened Def Con from 2.70834e-006 to 2.70834e-006
Heightened Def Con from 2.70835e-006 to 2.70935e-006
Heightened Def Con from 2.70936e-006 to 2.71136e-006
Heightened Def Con from 2.71932e-006 to 2.71934e-006
Heightened Def Con from 2.71936e-006 to 2.72136e-006
Heightened Def Con from 2.75318e-006 to 2.75418e-006
Heightened Def Con from 2.75418e-006 to 2.75421e-006
Heightened Def Con from 2.75422e-006 to 2.75422e-006
Heightened Def Con from 2.75426e-006 to 2.75426e-006
Heightened Def Con from 2.75437e-006 to 2.75537e-006
Heightened Def Con from 2.75538e-006 to 2.75538e-006
Heightened Def Con from 2.75538e-006 to 2.75638e-006
Heightened Def Con from 2.75639e-006 to 2.75641e-006
Heightened Def Con from 2.75641e-006 to 2.75641e-006
Heightened Def Con from 2.75649e-006 to 2.75849e-006
Heightened Def Con from 2.76123e-006 to 2.76323e-006
Heightened Def Con from 2.79961e-006 to 2.79973e-006
Heightened Def Con from 2.79975e-006 to 2.79989e-006
Heightened Def Con from 2.79999e-006 to 2.80199e-006
Heightened Def Con from 2.81003e-006 to 2.81005e-006
Heightened Def Con from 2.81006e-006 to 2.81106e-006
Heightened Def Con from 2.81106e-006 to 2.81306e-006
Heightened Def Con from 2.81365e-006 to 2.81565e-006
Heightened Def Con from 2.82179e-006 to 2.82179e-006
Heightened Def Con from 2.82183e-006 to 2.82383e-006
Heightened Def Con from 2.82385e-006 to 2.82585e-006
Heightened Def Con from 2.82945e-006 to 2.83145e-006
Heightened Def Con from 2.84292e-006 to 2.84292e-006
Heightened Def Con from 2.84292e-006 to 2.84492e-006
Heightened Def Con from 2.84503e-006 to 2.84703e-006
Heightened Def Con from 2.85406e-006 to 2.85606e-006
Heightened Def Con from 2.86212e-006 to 2.86412e-006
Heightened Def Con from 2.86437e-006 to 2.86637e-006
Heightened Def Con from 2.87239e-006 to 2.87239e-006
Heightened Def Con from 2.8724e-006 to 2.8744e-006
Heightened Def Con from 2.87617e-006 to 2.87817e-006
Heightened Def Con from 2.89118e-006 to 2.89318e-006
Heightened Def Con from 2.89515e-006 to 2.89715e-006
Heightened Def Con from 2.89719e-006 to 2.89919e-006
Heightened Def Con from 2.90525e-006 to 2.90725e-006
Heightened Def Con from 2.91342e-006 to 2.91542e-006
Heightened Def Con from 2.92271e-006 to 2.92471e-006
Heightened Def Con from 2.93081e-006 to 2.93281e-006
Heightened Def Con from 2.93884e-006 to 2.94084e-006
Heightened Def Con from 2.95144e-006 to 2.95344e-006
Heightened Def Con from 2.96402e-006 to 2.96503e-006
Heightened Def Con from 2.96512e-006 to 2.96712e-006
Heightened Def Con from 2.96715e-006 to 2.96915e-006
Heightened Def Con from 2.97521e-006 to 2.97622e-006
Heightened Def Con from 2.97623e-006 to 2.97823e-006
Heightened Def Con from 2.97849e-006 to 2.97849e-006
Heightened Def Con from 2.97849e-006 to 2.97949e-006
Heightened Def Con from 2.97951e-006 to 2.98151e-006
Heightened Def Con from 2.98186e-006 to 2.98386e-006
Heightened Def Con from 2.98412e-006 to 2.98612e-006
Heightened Def Con from 2.99213e-006 to 2.99213e-006
Heightened Def Con from 2.99213e-006 to 2.99413e-006
Heightened Def Con from 2.99452e-006 to 2.99652e-006
Heightened Def Con from 3.00231e-006 to 3.00431e-006
Heightened Def Con from 3.01038e-006 to 3.01238e-006
Heightened Def Con from 3.01267e-006 to 3.01467e-006
Heightened Def Con from 3.01485e-006 to 3.01685e-006
Heightened Def Con from 3.02295e-006 to 3.02295e-006
Heightened Def Con from 3.02302e-006 to 3.02502e-006
Heightened Def Con from 3.02516e-006 to 3.02716e-006
Heightened Def Con from 3.02741e-006 to 3.02941e-006
Heightened Def Con from 3.03558e-006 to 3.03658e-006
Heightened Def Con from 3.03664e-006 to 3.03864e-006
Heightened Def Con from 3.03877e-006 to 3.04077e-006
Heightened Def Con from 3.05481e-006 to 3.05681e-006
Heightened Def Con from 3.05713e-006 to 3.05814e-006
Heightened Def Con from 3.05815e-006 to 3.06015e-006
Heightened Def Con from 3.06024e-006 to 3.06224e-006
Heightened Def Con from 3.06852e-006 to 3.07052e-006
Heightened Def Con from 3.07755e-006 to 3.07756e-006
Heightened Def Con from 3.0776e-006 to 3.0796e-006
Heightened Def Con from 3.0818e-006 to 3.0838e-006
Heightened Def Con from 3.08622e-006 to 3.08822e-006
Heightened Def Con from 3.09546e-006 to 3.09648e-006
Heightened Def Con from 3.09649e-006 to 3.09751e-006
Heightened Def Con from 3.09757e-006 to 3.09957e-006
Heightened Def Con from 3.1104e-006 to 3.11042e-006
Heightened Def Con from 3.11043e-006 to 3.11145e-006
Heightened Def Con from 3.11162e-006 to 3.11362e-006
Heightened Def Con from 3.12068e-006 to 3.12268e-006
Heightened Def Con from 3.12872e-006 to 3.13072e-006
Heightened Def Con from 3.13085e-006 to 3.13285e-006
Heightened Def Con from 3.133e-006 to 3.135e-006
Heightened Def Con from 3.13515e-006 to 3.13715e-006
Heightened Def Con from 3.13721e-006 to 3.13921e-006
Heightened Def Con from 3.15011e-006 to 3.15013e-006
Heightened Def Con from 3.15026e-006 to 3.15226e-006
Heightened Def Con from 3.16527e-006 to 3.16529e-006
Heightened Def Con from 3.16529e-006 to 3.16529e-006
Heightened Def Con from 3.1653e-006 to 3.1673e-006
Heightened Def Con from 3.16738e-006 to 3.16938e-006
Heightened Def Con from 3.16965e-006 to 3.17165e-006
Heightened Def Con from 3.17166e-006 to 3.17366e-006
Heightened Def Con from 3.1902e-006 to 3.1922e-006
Heightened Def Con from 3.19823e-006 to 3.20023e-006
Heightened Def Con from 3.20267e-006 to 3.20467e-006
Heightened Def Con from 3.20995e-006 to 3.21195e-006
Heightened Def Con from 3.21799e-006 to 3.21999e-006
Heightened Def Con from 3.22363e-006 to 3.22563e-006
Heightened Def Con from 3.22567e-006 to 3.22767e-006
Heightened Def Con from 3.2382e-006 to 3.2402e-006
Heightened Def Con from 3.24749e-006 to 3.24749e-006
Heightened Def Con from 3.2475e-006 to 3.24752e-006
Heightened Def Con from 3.24753e-006 to 3.24753e-006
Heightened Def Con from 3.24758e-006 to 3.24958e-006
Heightened Def Con from 3.25659e-006 to 3.25859e-006
Heightened Def Con from 3.2647e-006 to 3.2667e-006
Heightened Def Con from 3.27981e-006 to 3.28181e-006
Heightened Def Con from 3.28207e-006 to 3.28407e-006
Heightened Def Con from 3.29722e-006 to 3.29722e-006
Heightened Def Con from 3.29722e-006 to 3.29722e-006
Heightened Def Con from 3.29722e-006 to 3.29725e-006
Heightened Def Con from 3.29741e-006 to 3.29941e-006
Heightened Def Con from 3.29953e-006 to 3.29953e-006
Heightened Def Con from 3.29957e-006 to 3.30157e-006
Heightened Def Con from 3.30161e-006 to 3.30361e-006
Heightened Def Con from 3.3197e-006 to 3.3197e-006
Heightened Def Con from 3.3197e-006 to 3.3217e-006
Heightened Def Con from 3.32173e-006 to 3.32373e-006
Heightened Def Con from 3.32398e-006 to 3.32598e-006
Heightened Def Con from 3.32952e-006 to 3.33152e-006
Heightened Def Con from 3.33405e-006 to 3.33605e-006
Heightened Def Con from 3.33633e-006 to 3.33833e-006
Heightened Def Con from 3.33871e-006 to 3.34071e-006
Heightened Def Con from 3.34321e-006 to 3.34423e-006
Heightened Def Con from 3.34436e-006 to 3.34636e-006
Heightened Def Con from 3.34714e-006 to 3.34816e-006
Heightened Def Con from 3.3482e-006 to 3.3502e-006
Heightened Def Con from 3.35745e-006 to 3.35847e-006
Heightened Def Con from 3.35864e-006 to 3.36064e-006
Heightened Def Con from 3.37015e-006 to 3.37215e-006
Heightened Def Con from 3.37821e-006 to 3.38021e-006
Heightened Def Con from 3.38022e-006 to 3.38222e-006
Heightened Def Con from 3.38822e-006 to 3.38823e-006
Heightened Def Con from 3.3883e-006 to 3.3903e-006
Heightened Def Con from 3.39806e-006 to 3.39806e-006
Heightened Def Con from 3.39806e-006 to 3.39906e-006
Heightened Def Con from 3.39914e-006 to 3.40114e-006
Heightened Def Con from 3.40719e-006 to 3.4082e-006
Heightened Def Con from 3.40824e-006 to 3.40824e-006
Heightened Def Con from 3.40841e-006 to 3.41041e-006
Heightened Def Con from 3.41442e-006 to 3.41442e-006
Heightened Def Con from 3.41442e-006 to 3.41642e-006
Heightened Def Con from 3.42942e-006 to 3.42942e-006
Heightened Def Con from 3.42942e-006 to 3.43042e-006
Heightened Def Con from 3.43048e-006 to 3.43048e-006
Heightened Def Con from 3.43048e-006 to 3.43149e-006
Heightened Def Con from 3.43158e-006 to 3.43358e-006
Heightened Def Con from 3.43386e-006 to 3.43386e-006
Heightened Def Con from 3.43387e-006 to 3.43388e-006
Heightened Def Con from 3.43388e-006 to 3.43588e-006
Heightened Def Con from 3.45589e-006 to 3.45789e-006
Heightened Def Con from 3.46761e-006 to 3.46761e-006
Heightened Def Con from 3.46761e-006 to 3.46861e-006
Heightened Def Con from 3.46861e-006 to 3.46863e-006
Heightened Def Con from 3.46863e-006 to 3.47063e-006
Heightened Def Con from 3.47107e-006 to 3.47107e-006
Heightened Def Con from 3.47107e-006 to 3.47207e-006
Heightened Def Con from 3.47212e-006 to 3.47313e-006
Heightened Def Con from 3.47319e-006 to 3.47319e-006
Heightened Def Con from 3.47334e-006 to 3.47434e-006
Heightened Def Con from 3.47438e-006 to 3.47638e-006
Heightened Def Con from 3.48253e-006 to 3.48353e-006
Heightened Def Con from 3.48358e-006 to 3.48458e-006
Heightened Def Con from 3.48463e-006 to 3.48463e-006
Heightened Def Con from 3.4847e-006 to 3.4857e-006
Heightened Def Con from 3.48572e-006 to 3.48772e-006
Heightened Def Con from 3.49476e-006 to 3.49477e-006
Heightened Def Con from 3.49485e-006 to 3.49685e-006
Heightened Def Con from 3.49694e-006 to 3.49894e-006
Heightened Def Con from 3.50607e-006 to 3.50807e-006
Heightened Def Con from 3.51957e-006 to 3.52157e-006
Heightened Def Con from 3.52957e-006 to 3.53058e-006
Heightened Def Con from 3.53066e-006 to 3.53266e-006
Heightened Def Con from 3.53277e-006 to 3.53477e-006
Heightened Def Con from 3.54431e-006 to 3.54631e-006
Heightened Def Con from 3.55249e-006 to 3.5525e-006
Heightened Def Con from 3.55252e-006 to 3.55452e-006
Heightened Def Con from 3.56053e-006 to 3.56253e-006
Heightened Def Con from 3.56856e-006 to 3.57056e-006
Heightened Def Con from 3.61285e-006 to 3.61385e-006
Heightened Def Con from 3.61389e-006 to 3.61389e-006
Heightened Def Con from 3.61393e-006 to 3.61394e-006
Heightened Def Con from 3.61398e-006 to 3.615e-006
Heightened Def Con from 3.61503e-006 to 3.61603e-006
Heightened Def Con from 3.61612e-006 to 3.61812e-006
Heightened Def Con from 3.6182e-006 to 3.6202e-006
Heightened Def Con from 3.62034e-006 to 3.62234e-006
Heightened Def Con from 3.62443e-006 to 3.62643e-006
Heightened Def Con from 3.63869e-006 to 3.6397e-006
Heightened Def Con from 3.6398e-006 to 3.64082e-006
Heightened Def Con from 3.64088e-006 to 3.64288e-006
Heightened Def Con from 3.64892e-006 to 3.65092e-006
Heightened Def Con from 3.65718e-006 to 3.65918e-006
Heightened Def Con from 3.6595e-006 to 3.6615e-006
Heightened Def Con from 3.66532e-006 to 3.66732e-006
Heightened Def Con from 3.68036e-006 to 3.68236e-006
Heightened Def Con from 3.69538e-006 to 3.69738e-006
Heightened Def Con from 3.69747e-006 to 3.69947e-006
Heightened Def Con from 3.70018e-006 to 3.70218e-006
Heightened Def Con from 3.70571e-006 to 3.70771e-006
Heightened Def Con from 3.7511e-006 to 3.7531e-006
Heightened Def Con from 3.75344e-006 to 3.75344e-006
Heightened Def Con from 3.75344e-006 to 3.75544e-006
Heightened Def Con from 3.75549e-006 to 3.75549e-006
Heightened Def Con from 3.75549e-006 to 3.7555e-006
Heightened Def Con from 3.75556e-006 to 3.75756e-006
Heightened Def Con from 3.76106e-006 to 3.76206e-006
Heightened Def Con from 3.7622e-006 to 3.7642e-006
Heightened Def Con from 3.7643e-006 to 3.7663e-006
Heightened Def Con from 4.16836e-006 to 4.17036e-006
Heightened Def Con from 4.17262e-006 to 4.17462e-006
Heightened Def Con from 4.17791e-006 to 4.17991e-006
Heightened Def Con from 4.17996e-006 to 4.17996e-006
Heightened Def Con from 4.18018e-006 to 4.18218e-006
Heightened Def Con from 4.18458e-006 to 4.18658e-006
Heightened Def Con from 4.18979e-006 to 4.19179e-006
Heightened Def Con from 4.19879e-006 to 4.19979e-006
Heightened Def Con from 4.19981e-006 to 4.19981e-006
Heightened Def Con from 4.19981e-006 to 4.20181e-006
Heightened Def Con from 4.20191e-006 to 4.20191e-006
Heightened Def Con from 4.20192e-006 to 4.20392e-006
Heightened Def Con from 4.20448e-006 to 4.20648e-006
Heightened Def Con from 4.20839e-006 to 4.21039e-006
Heightened Def Con from 4.21064e-006 to 4.21164e-006
Heightened Def Con from 4.21167e-006 to 4.21167e-006
Heightened Def Con from 4.21167e-006 to 4.21269e-006
Heightened Def Con from 4.21282e-006 to 4.21382e-006
Heightened Def Con from 4.21387e-006 to 4.21587e-006
Heightened Def Con from 4.22472e-006 to 4.22672e-006
Heightened Def Con from 4.22675e-006 to 4.22677e-006
Heightened Def Con from 4.22683e-006 to 4.22784e-006
Heightened Def Con from 4.22794e-006 to 4.22994e-006
Heightened Def Con from 4.24918e-006 to 4.24918e-006
Heightened Def Con from 4.24922e-006 to 4.24922e-006
Heightened Def Con from 4.24932e-006 to 4.25032e-006
Heightened Def Con from 4.25036e-006 to 4.25036e-006
Heightened Def Con from 4.25036e-006 to 4.25236e-006
Heightened Def Con from 4.25418e-006 to 4.25421e-006
Heightened Def Con from 4.25424e-006 to 4.25424e-006
Heightened Def Con from 4.25433e-006 to 4.25433e-006
Heightened Def Con from 4.25438e-006 to 4.25538e-006
Heightened Def Con from 4.25542e-006 to 4.25742e-006
Heightened Def Con from 4.25778e-006 +++++to 4.2578e-006
Heightened Def Con from 4.25781e-006 to 4.25781e-006
Heightened Def Con from 4.25787e-006 to 4.25787e-006
Heightened Def Con from 4.25787e-006 to 4.25787e-006
Heightened Def Con from 4.25788e-006 to 4.25789e-006
Heightened Def Con from 4.25791e-006 to 4.25991e-006
Heightened Def Con from 4.2672e-006 to 4.2692e-006
Heightened Def Con from 4.27697e-006 to 4.27897e-006
Heightened Def Con from 4.306e-006 to 4.306e-006
Heightened Def Con from 4.30602e-006 to 4.30802e-006
Heightened Def Con from 4.30807e-006 to 4.31007e-006
Heightened Def Con from 4.31359e-006 to 4.31359e-006
Heightened Def Con from 4.31361e-006 to 4.31462e-006
Heightened Def Con from 4.31468e-006 to 4.31568e-006
Heightened Def Con from 4.31572e-006 to 4.31673e-006
Heightened Def Con from 4.31675e-006 to 4.31875e-006
Heightened Def Con from 4.319e-006 to 4.319e-006
Heightened Def Con from 4.31902e-006 to 4.32002e-006
Heightened Def Con from 4.32003e-006 to 4.32203e-006
Heightened Def Con from 4.32219e-006 to 4.32219e-006
Heightened Def Con from 4.32219e-006 to 4.32319e-006
Heightened Def Con from 4.32321e-006 to 4.32422e-006
Heightened Def Con from 4.32424e-006 to 4.32624e-006
Heightened Def Con from 4.3281e-006 to 4.3301e-006
Heightened Def Con from 4.33381e-006 to 4.33381e-006
Heightened Def Con from 4.33382e-006 to 4.33382e-006
Heightened Def Con from 4.33385e-006 to 4.33386e-006
Heightened Def Con from 4.33386e-006 to 4.33386e-006
Heightened Def Con from 4.33392e-006 to 4.33392e-006
Heightened Def Con from 4.33395e-006 to 4.33395e-006
Heightened Def Con from 4.33402e-006 to 4.33405e-006
Heightened Def Con from 4.33406e-006 to 4.33606e-006
Heightened Def Con from 4.34381e-006 to 4.34383e-006
Heightened Def Con from 4.34383e-006 to 4.34483e-006
Heightened Def Con from 4.34487e-006 to 4.34489e-006
Heightened Def Con from 4.34502e-006 to 4.34502e-006
Heightened Def Con from 4.34503e-006 to 4.34503e-006
Heightened Def Con from 4.34503e-006 to 4.34505e-006
Heightened Def Con from 4.34507e-006 to 4.34509e-006
Heightened Def Con from 4.3451e-006 to 4.3451e-006
Heightened Def Con from 4.34513e-006 to 4.34613e-006
Heightened Def Con from 4.34614e-006 to 4.34814e-006
Heightened Def Con from 4.34826e-006 to 4.34826e-006
Heightened Def Con from 4.34827e-006 to 4.34827e-006
Heightened Def Con from 4.34829e-006 to 4.3483e-006
Heightened Def Con from 4.34831e-006 to 4.35031e-006
Heightened Def Con from 4.35036e-006 to 4.35236e-006
Heightened Def Con from 4.3525e-006 to 4.3525e-006
Heightened Def Con from 4.35261e-006 to 4.35261e-006
Heightened Def Con from 4.35264e-006 to 4.35464e-006
Heightened Def Con from 4.37914e-006 to 4.37914e-006
Heightened Def Con from 4.37914e-006 to 4.38015e-006
Heightened Def Con from 4.38016e-006 to 4.38118e-006
Heightened Def Con from 4.3812e-006 to 4.38121e-006
Heightened Def Con from 4.3813e-006 to 4.3833e-006
Heightened Def Con from 4.38333e-006 to 4.38433e-006
Heightened Def Con from 4.38434e-006 to 4.38435e-006
Heightened Def Con from 4.38436e-006 to 4.38438e-006
Heightened Def Con from 4.3844e-006 to 4.38441e-006
Heightened Def Con from 4.38446e-006 to 4.38646e-006
Heightened Def Con from 4.38658e-006 to 4.38658e-006
Heightened Def Con from 4.38659e-006 to 4.38659e-006
Heightened Def Con from 4.38661e-006 to 4.38762e-006
Heightened Def Con from 4.38781e-006 to 4.38981e-006
Heightened Def Con from 4.38995e-006 to 4.38995e-006
Heightened Def Con from 4.38995e-006 to 4.39095e-006
Heightened Def Con from 4.391e-006 to 4.39101e-006
Heightened Def Con from 4.39105e-006 to 4.39109e-006
Heightened Def Con from 4.39114e-006 to 4.39114e-006
Heightened Def Con from 4.39115e-006 to 4.39117e-006
Heightened Def Con from 4.39117e-006 to 4.39219e-006
Heightened Def Con from 4.39222e-006 to 4.39224e-006
Heightened Def Con from 4.39228e-006 to 4.39231e-006
Heightened Def Con from 4.39232e-006 to 4.39232e-006
Heightened Def Con from 4.39232e-006 to 4.39232e-006
Heightened Def Con from 4.39241e-006 to 4.39241e-006
Heightened Def Con from 4.39251e-006 to 4.39251e-006
Heightened Def Con from 4.39258e-006 to 4.39358e-006
Heightened Def Con from 4.39361e-006 to 4.39461e-006
Heightened Def Con from 4.39478e-006 to 4.39678e-006
Heightened Def Con from 4.40317e-006 to 4.40517e-006
Heightened Def Con from 4.40884e-006 to 4.41084e-006
Heightened Def Con from 4.41287e-006 to 4.41487e-006
Heightened Def Con from 4.415e-006 to 4.417e-006
Heightened Def Con from 4.41731e-006 to 4.41931e-006
Heightened Def Con from 4.42984e-006 to 4.43184e-006
Heightened Def Con from 4.43209e-006 to 4.43409e-006
Heightened Def Con from 4.43788e-006 to 4.43988e-006
Heightened Def Con from 4.44377e-006 to 4.44577e-006
Heightened Def Con from 4.45106e-006 to 4.45306e-006
Heightened Def Con from 4.45315e-006 to 4.45515e-006
Heightened Def Con from 4.45537e-006 to 4.45737e-006
Heightened Def Con from 4.45741e-006 to 4.45941e-006
Heightened Def Con from 4.46466e-006 to 4.46466e-006
Heightened Def Con from 4.46466e-006 to 4.46468e-006
Heightened Def Con from 4.46471e-006 to 4.46671e-006
Heightened Def Con from 4.47274e-006 to 4.47276e-006
Heightened Def Con from 4.47285e-006 to 4.47485e-006
Heightened Def Con from 4.48214e-006 to 4.48414e-006
Heightened Def Con from 4.48441e-006 to 4.48641e-006
Heightened Def Con from 4.48649e-006 to 4.48849e-006
Heightened Def Con from 4.48867e-006 to 4.49067e-006
Heightened Def Con from 4.49096e-006 to 4.49296e-006
Heightened Def Con from 4.49501e-006 to 4.49701e-006
Heightened Def Con from 4.4991e-006 to 4.49913e-006
Heightened Def Con from 4.49914e-006 to 4.50014e-006
Heightened Def Con from 4.50017e-006 to 4.50117e-006
Heightened Def Con from 4.50119e-006 to 4.50319e-006
Heightened Def Con from 4.50936e-006 to 4.51136e-006
Heightened Def Con from 4.51491e-006 to 4.51691e-006
Heightened Def Con from 4.52417e-006 to 4.52617e-006
Heightened Def Con from 4.53217e-006 to 4.53317e-006
Heightened Def Con from 4.5388e-006 to 4.5388e-006
Heightened Def Con from 4.53883e-006 to 4.54083e-006
Heightened Def Con from 4.54285e-006 to 4.54485e-006
Heightened Def Con from 4.55093e-006 to 4.55093e-006
Heightened Def Con from 4.55096e-006 to 4.55296e-006
Heightened Def Con from 4.55902e-006 to 4.56002e-006
Heightened Def Con from 4.56002e-006 to 4.56005e-006
Heightened Def Con from 4.56014e-006 to 4.56014e-006
Heightened Def Con from 4.56014e-006 to 4.56014e-006
Heightened Def Con from 4.56015e-006 to 4.56215e-006
Heightened Def Con from 4.56589e-006 to 4.56789e-006
Heightened Def Con from 4.57392e-006 to 4.57592e-006
Heightened Def Con from 4.57605e-006 to 4.57805e-006
Heightened Def Con from 4.60218e-006 to 4.60318e-006
Heightened Def Con from 4.60326e-006 to 4.60526e-006
Heightened Def Con from 4.60563e-006 to 4.60763e-006
Heightened Def Con from 4.61846e-006 to 4.62046e-006
Heightened Def Con from 4.62657e-006 to 4.62857e-006
Heightened Def Con from 4.63052e-006 to 4.63252e-006
Heightened Def Con from 4.6403e-006 to 4.64132e-006
Heightened Def Con from 4.64144e-006 to 4.64344e-006
Heightened Def Con from 4.64347e-006 to 4.64547e-006
Heightened Def Con from 4.64558e-006 to 4.64758e-006
Heightened Def Con from 4.64809e-006 to 4.65009e-006
Heightened Def Con from 4.67289e-006 to 4.67489e-006
Heightened Def Con from 4.67526e-006 to 4.67726e-006
Heightened Def Con from 4.68332e-006 to 4.68532e-006
Heightened Def Con from 4.68583e-006 to 4.68783e-006
Heightened Def Con from 4.68848e-006 to 4.69048e-006
Heightened Def Con from 4.73074e-006 to 4.73274e-006
Heightened Def Con from 4.73879e-006 to 4.74079e-006
Heightened Def Con from 4.74105e-006 to 4.74305e-006
Heightened Def Con from 4.74321e-006 to 4.74521e-006
Heightened Def Con from 4.76292e-006 to 4.76492e-006
Heightened Def Con from 4.77128e-006 to 4.7723e-006
Heightened Def Con from 4.7723e-006 to 4.7743e-006
Heightened Def Con from 4.77449e-006 to 4.77649e-006
Heightened Def Con from 4.78526e-006 to 4.78726e-006
Heightened Def Con from 4.79343e-006 to 4.79343e-006
Heightened Def Con from 4.79345e-006 to 4.79545e-006
Heightened Def Con from 4.80248e-006 to 4.80448e-006
Heightened Def Con from 4.81152e-006 to 4.81352e-006
Heightened Def Con from 4.83815e-006 to 4.83815e-006
Heightened Def Con from 4.83822e-006 to 4.84022e-006
Heightened Def Con from 4.84642e-006 to 4.84842e-006
Heightened Def Con from 4.84867e-006 to 4.85067e-006
Heightened Def Con from 4.85669e-006 to 4.85869e-006
Heightened Def Con from 4.86527e-006 to 4.86727e-006
Heightened Def Con from 4.87334e-006 to 4.87534e-006
Heightened Def Con from 4.88137e-006 to 4.88239e-006
Heightened Def Con from 4.88243e-006 to 4.88443e-006
Heightened Def Con from 4.88985e-006 to 4.89185e-006
Heightened Def Con from 4.89891e-006 to 4.90091e-006
Heightened Def Con from 4.90829e-006 to 4.91029e-006
Heightened Def Con from 4.91629e-006 to 4.9163e-006
Heightened Def Con from 4.9163e-006 to 4.9183e-006
Heightened Def Con from 4.92446e-006 to 4.92646e-006
Heightened Def Con from 4.93378e-006 to 4.93578e-006
Heightened Def Con from 4.9358e-006 to 4.9378e-006
Heightened Def Con from 4.95182e-006 to 4.95382e-006
Heightened Def Con from 4.96003e-006 to 4.96004e-006
Heightened Def Con from 4.96014e-006 to 4.96214e-006
Heightened Def Con from 4.96597e-006 to 4.96797e-006
Heightened Def Con from 4.97398e-006 to 4.97398e-006
Heightened Def Con from 4.97398e-006 to 4.97398e-006
Heightened Def Con from 4.97398e-006 to 4.97402e-006
Heightened Def Con from 4.97402e-006 to 4.97503e-006
Heightened Def Con from 4.97529e-006 to 4.97729e-006
Heightened Def Con from 4.97746e-006 to 4.97946e-006
Heightened Def Con from 4.98006e-006 to 4.98106e-006
Heightened Def Con from 4.98107e-006 to 4.98307e-006
Heightened Def Con from 4.98907e-006 to 4.99008e-006
Heightened Def Con from 4.9901e-006 to 4.9911e-006
Heightened Def Con from 4.99129e-006 to 4.99329e-006
Heightened Def Con from 5.00055e-006 to 5.00255e-006
Heightened Def Con from 5.00861e-006 to 5.01061e-006
Heightened Def Con from 5.01068e-006 to 5.01268e-006
Heightened Def Con from 5.02087e-006 to 5.02087e-006
Heightened Def Con from 5.02089e-006 to 5.02289e-006
Heightened Def Con from 5.02893e-006 to 5.02995e-006
Heightened Def Con from 5.02995e-006 to 5.03195e-006
Heightened Def Con from 5.03801e-006 to 5.03901e-006
Heightened Def Con from 5.03908e-006 to 5.04108e-006
Heightened Def Con from 5.04121e-006 to 5.04321e-006
Heightened Def Con from 5.05097e-006 to 5.05197e-006
Heightened Def Con from 5.05204e-006 to 5.05304e-006
Heightened Def Con from 5.05304e-006 to 5.05504e-006
Heightened Def Con from 5.05507e-006 to 5.05707e-006
Heightened Def Con from 5.06345e-006 to 5.06348e-006
Heightened Def Con from 5.06352e-006 to 5.06452e-006
Heightened Def Con from 5.06453e-006 to 5.06453e-006
Heightened Def Con from 5.06453e-006 to 5.06553e-006
Heightened Def Con from 5.06557e-006 to 5.06757e-006
Heightened Def Con from 5.06757e-006 to 5.06857e-006
Heightened Def Con from 5.06862e-006 to 5.06862e-006
Heightened Def Con from 5.06862e-006 to 5.06964e-006
Heightened Def Con from 5.06974e-006 to 5.07174e-006
Heightened Def Con from 5.07354e-006 to 5.07554e-006
Heightened Def Con from 5.07555e-006 to 5.07755e-006
Heightened Def Con from 5.09405e-006 to 5.09605e-006
Heightened Def Con from 5.10588e-006 to 5.10788e-006
Heightened Def Con from 5.11152e-006 to 5.11352e-006
Heightened Def Con from 5.11735e-006 to 5.11935e-006
Heightened Def Con from 5.1302e-006 to 5.1302e-006
Heightened Def Con from 5.13021e-006 to 5.13221e-006
Heightened Def Con from 5.13265e-006 to 5.13465e-006
Heightened Def Con from 5.14073e-006 to 5.14273e-006
Heightened Def Con from 5.14273e-006 to 5.14473e-006
Heightened Def Con from 5.15549e-006 to 5.15749e-006
Heightened Def Con from 5.17161e-006 to 5.17361e-006
Heightened Def Con from 5.17974e-006 to 5.18174e-006
Heightened Def Con from 5.18777e-006 to 5.18977e-006
Heightened Def Con from 5.18977e-006 to 5.19077e-006
Heightened Def Con from 5.19078e-006 to 5.19278e-006
Heightened Def Con from 5.19879e-006 to 5.1998e-006
Heightened Def Con from 5.19989e-006 to 5.20189e-006
Heightened Def Con from 5.20227e-006 to 5.20427e-006
Heightened Def Con from 5.21042e-006 to 5.21242e-006
Heightened Def Con from 5.21267e-006 to 5.21467e-006
Heightened Def Con from 5.21468e-006 to 5.21668e-006
Heightened Def Con from 5.22275e-006 to 5.22475e-006
Heightened Def Con from 5.22504e-006 to 5.22704e-006
Heightened Def Con from 5.23307e-006 to 5.23507e-006
Heightened Def Con from 5.23513e-006 to 5.23713e-006
Heightened Def Con from 5.23726e-006 to 5.23926e-006
Heightened Def Con from 5.2463e-006 to 5.2483e-006
Heightened Def Con from 5.24836e-006 to 5.25036e-006
Heightened Def Con from 5.25638e-006 to 5.25838e-006
Heightened Def Con from 5.26444e-006 to 5.26644e-006
Heightened Def Con from 5.26844e-006 to 5.27044e-006
Heightened Def Con from 5.27246e-006 to 5.27446e-006
Heightened Def Con from 5.27799e-006 to 5.27999e-006
Heightened Def Con from 5.28618e-006 to 5.28818e-006
Heightened Def Con from 5.29423e-006 to 5.29623e-006
Heightened Def Con from 5.30926e-006 to 5.30927e-006
Heightened Def Con from 5.30936e-006 to 5.31037e-006
Heightened Def Con from 5.31051e-006 to 5.31251e-006
Heightened Def Con from 5.31639e-006 to 5.31839e-006
Heightened Def Con from 5.31851e-006 to 5.31951e-006
Heightened Def Con from 5.31955e-006 to 5.32155e-006
Heightened Def Con from 5.32894e-006 to 5.32894e-006
Heightened Def Con from 5.32896e-006 to 5.33096e-006
Heightened Def Con from 5.3406e-006 to 5.3426e-006
Heightened Def Con from 5.34868e-006 to 5.34868e-006
Heightened Def Con from 5.34868e-006 to 5.34868e-006
Heightened Def Con from 5.3487e-006 to 5.34972e-006
Heightened Def Con from 5.34974e-006 to 5.35174e-006
Heightened Def Con from 5.35193e-006 to 5.35393e-006
Heightened Def Con from 5.35401e-006 to 5.35601e-006
Heightened Def Con from 5.35603e-006 to 5.35803e-006
Heightened Def Con from 5.36529e-006 to 5.36529e-006
Heightened Def Con from 5.3653e-006 to 5.3673e-006
Heightened Def Con from 5.38631e-006 to 5.38831e-006
Heightened Def Con from 5.38864e-006 to 5.39064e-006
Heightened Def Con from 1.31358e-005 to 1.31358e-005
Heightened Def Con from 1.31358e-005 to 1.31368e-005
Heightened Def Con from 1.31368e-005 to 1.31368e-005
Heightened Def Con from 1.31369e-005 to 1.31389e-005
Heightened Def Con from 1.31456e-005 to 1.31476e-005
Heightened Def Con from 1.31513e-005 to 1.31533e-005
Heightened Def Con from 1.31548e-005 to 1.31548e-005
Heightened Def Con from 1.3155e-005 to 1.3157e-005
Heightened Def Con from 1.31582e-005 to 1.31602e-005
Heightened Def Con from 1.31625e-005 to 1.31645e-005
Heightened Def Con from 1.31649e-005 to 1.31669e-005
Heightened Def Con from 1.31669e-005 to 1.31689e-005
Heightened Def Con from 1.31693e-005 to 1.31713e-005
Heightened Def Con from 1.31738e-005 to 1.31758e-005
Heightened Def Con from 1.31759e-005 to 1.31779e-005
Heightened Def Con from 1.31793e-005 to 1.31813e-005
Heightened Def Con from 1.31826e-005 to 1.31846e-005
Heightened Def Con from 1.32073e-005 to 1.32083e-005
Heightened Def Con from 1.32083e-005 to 1.32103e-005
Heightened Def Con from 1.32145e-005 to 1.32145e-005
Heightened Def Con from 1.32146e-005 to 1.32166e-005
Heightened Def Con from 1.3217e-005 to 1.3219e-005
Heightened Def Con from 1.32224e-005 to 1.32244e-005
Heightened Def Con from 1.34049e-005 to 1.34069e-005
Heightened Def Con from 1.34071e-005 to 1.34091e-005
Heightened Def Con from 1.34106e-005 to 1.34116e-005
Heightened Def Con from 1.34116e-005 to 1.34127e-005
Heightened Def Con from 1.34129e-005 to 1.34149e-005
Heightened Def Con from 1.3415e-005 to 1.3417e-005
Heightened Def Con from 1.34202e-005 to 1.34202e-005
Heightened Def Con from 1.34203e-005 to 1.34223e-005
Heightened Def Con from 1.34223e-005 to 1.34233e-005
Heightened Def Con from 1.34234e-005 to 1.34254e-005
Heightened Def Con from 1.3479e-005 to 1.3481e-005
Heightened Def Con from 1.34813e-005 to 1.34833e-005
Heightened Def Con from 1.34839e-005 to 1.34859e-005
Heightened Def Con from 1.34932e-005 to 1.34932e-005
Heightened Def Con from 1.34932e-005 to 1.34932e-005
Heightened Def Con from 1.34933e-005 to 1.34933e-005
Heightened Def Con from 1.34933e-005 to 1.34933e-005
Heightened Def Con from 1.34933e-005 to 1.34933e-005
Heightened Def Con from 1.34933e-005 to 1.34933e-005
Heightened Def Con from 1.34933e-005 to 1.34933e-005
Heightened Def Con from 1.34933e-005 to 1.34933e-005
Heightened Def Con from 1.34933e-005 to 1.34943e-005
Heightened Def Con from 1.34943e-005 to 1.34943e-005
Heightened Def Con from 1.34943e-005 to 1.34943e-005
Heightened Def Con from 1.34943e-005 to 1.34953e-005
Heightened Def Con from 1.34953e-005 to 1.34953e-005
Heightened Def Con from 1.34953e-005 to 1.34954e-005
Heightened Def Con from 1.34954e-005 +to 1.34964e-005
Heightened Def Con from 1.34974e-005 to 1.34975e-005
Heightened Def Con from 1.34975e-005 to 1.34975e-005
Heightened Def Con from 1.34975e-005 to 1.34975e-005
Heightened Def Con from 1.34975e-005 to 1.34995e-005
Heightened Def Con from 1.45202e-005 to 1.45222e-005
Heightened Def Con from 1.45223e-005 to 1.45223e-005
Heightened Def Con from 1.45224e-005 to 1.45244e-005
Heightened Def Con from 1.45245e-005 to 1.45245e-005
Heightened Def Con from 1.45245e-005 to 1.45265e-005
Heightened Def Con from 1.45356e-005 to 1.45376e-005
Heightened Def Con from 1.45517e-005 to 1.45517e-005
Heightened Def Con from 1.45517e-005 to 1.45537e-005
Heightened Def Con from 1.45558e-005 to 1.45578e-005
Heightened Def Con from 1.45598e-005 to 1.45618e-005
Heightened Def Con from 1.45639e-005 to 1.45649e-005
Heightened Def Con from 1.45649e-005 to 1.45649e-005
Heightened Def Con from 1.4565e-005 to 1.4565e-005
Heightened Def Con from 1.45651e-005 to 1.45671e-005
Heightened Def Con from 1.45872e-005 to 1.45892e-005
Heightened Def Con from 1.45893e-005 to 1.45893e-005
Heightened Def Con from 1.45894e-005 to 1.45894e-005
Heightened Def Con from 1.45894e-005 to 1.45894e-005
Heightened Def Con from 1.45895e-005 to 1.45895e-005
Heightened Def Con from 1.45895e-005 to 1.45905e-005
Heightened Def Con from 1.45906e-005 to 1.45926e-005
Heightened Def Con from 1.45961e-005 to 1.45981e-005
Heightened Def Con from 1.46367e-005 to 1.46387e-005
Heightened Def Con from 1.4645e-005 to 1.4647e-005
Heightened Def Con from 1.46531e-005 to 1.46551e-005
Heightened Def Con from 1.46964e-005 to 1.46964e-005
Heightened Def Con from 1.46965e-005 to 1.46965e-005
Heightened Def Con from 1.46965e-005 to 1.46985e-005
Heightened Def Con from 1.47023e-005 to 1.47043e-005
Heightened Def Con from 1.47045e-005 to 1.47065e-005
Heightened Def Con from 1.4708e-005 to 1.471e-005
Heightened Def Con from 1.47199e-005 to 1.47219e-005
Heightened Def Con from 1.47336e-005 to 1.47356e-005
Heightened Def Con from 1.47408e-005 to 1.47418e-005
Heightened Def Con from 1.47419e-005 to 1.47439e-005
Heightened Def Con from 1.47487e-005 to 1.47507e-005
Heightened Def Con from 1.4759e-005 to 1.4761e-005
Heightened Def Con from 1.4761e-005 to 1.4763e-005
Heightened Def Con from 1.4768e-005 to 1.477e-005
Heightened Def Con from 1.477e-005 to 1.4772e-005
Heightened Def Con from 1.4778e-005 to 1.478e-005
Heightened Def Con from 1.47802e-005 to 1.47822e-005
Heightened Def Con from 1.47877e-005 to 1.47897e-005
Heightened Def Con from 1.47919e-005 to 1.47939e-005
Heightened Def Con from 1.4794e-005 to 1.47951e-005
Heightened Def Con from 1.47951e-005 to 1.47951e-005
Heightened Def Con from 1.47953e-005 to 1.47953e-005
Heightened Def Con from 1.47955e-005 to 1.47955e-005
Heightened Def Con from 1.47955e-005 to 1.47955e-005
Heightened Def Con from 1.47955e-005 to 1.47955e-005
Heightened Def Con from 1.47955e-005 to 1.47955e-005
Heightened Def Con from 1.47955e-005 to 1.47955e-005
Heightened Def Con from 1.47955e-005 to 1.47956e-005
Heightened Def Con from 1.47956e-005 to 1.47966e-005
Heightened Def Con from 1.47967e-005 to 1.47967e-005
Heightened Def Con from 1.47967e-005 to 1.47967e-005
Heightened Def Con from 1.47967e-005 to 1.47967e-005
Heightened Def Con from 1.47968e-005 to 1.47968e-005
Heightened Def Con from 1.47968e-005 to 1.47968e-005
Heightened Def Con from 1.47969e-005 to 1.47969e-005
Heightened Def Con from 1.47969e-005 to 1.47969e-005
Heightened Def Con from 1.47969e-005 to 1.47969e-005
Heightened Def Con from 1.47969e-005 to 1.47969e-005
Heightened Def Con from 1.4797e-005 to 1.4797e-005
Heightened Def Con from 1.4797e-005 to 1.4797e-005
Heightened Def Con from 1.47972e-005 to 1.47982e-005
Heightened Def Con from 1.47982e-005 to 1.47992e-005
Heightened Def Con from 1.47992e-005 to 1.47992e-005
Heightened Def Con from 1.47992e-005 to 1.47992e-005
Heightened Def Con from 1.47992e-005 to 1.48002e-005
Heightened Def Con from 1.48003e-005 to 1.48003e-005
Heightened Def Con from 1.48003e-005 to 1.48003e-005
Heightened Def Con from 1.48005e-005 to 1.48005e-005
Heightened Def Con from 1.48005e-005 to 1.48005e-005
Heightened Def Con from 1.48007e-005 to 1.48007e-005
Heightened Def Con from 1.48007e-005 to 1.48007e-005
Heightened Def Con from 1.48007e-005 to 1.48007e-005
Heightened Def Con from 1.48008e-005 to 1.48018e-005
Heightened Def Con from 1.48018e-005 to 1.48019e-005
Heightened Def Con from 1.48019e-005 to 1.48019e-005
Heightened Def Con from 1.48019e-005 to 1.48019e-005
Heightened Def Con from 1.48019e-005 to 1.48019e-005
Heightened Def Con from 1.48019e-005 to 1.48029e-005
Heightened Def Con from 1.48029e-005 to 1.48029e-005
Heightened Def Con from 1.48032e-005 to 1.48032e-005
Heightened Def Con from 1.48032e-005 to 1.48032e-005
Heightened Def Con from 1.48032e-005 to 1.48032e-005
Heightened Def Con from 1.48033e-005 to 1.48043e-005
Heightened Def Con from 1.48044e-005 to 1.48054e-005
Heightened Def Con from 1.48054e-005 to 1.48054e-005
Heightened Def Con from 1.48055e-005 to 1.48055e-005
Heightened Def Con from 1.48055e-005 to 1.48055e-005
Heightened Def Con from 1.48055e-005 to 1.48066e-005
Heightened Def Con from 1.48066e-005 to 1.48066e-005
Heightened Def Con from 1.48066e-005 to 1.48066e-005
Heightened Def Con from 1.48066e-005 to 1.48066e-005
Heightened Def Con from 1.48066e-005 to 1.48076e-005
Heightened Def Con from 1.48078e-005 to 1.48078e-005
Heightened Def Con from 1.48078e-005 to 1.48078e-005
Heightened Def Con from 1.48078e-005 to 1.48088e-005
Heightened Def Con from 1.48088e-005 to 1.48088e-005
Heightened Def Con from 1.48088e-005 to 1.48088e-005
Heightened Def Con from 1.48089e-005 to 1.48109e-005
Heightened Def Con from 1.4811e-005 to 1.4812e-005
Heightened Def Con from 1.48121e-005 to 1.48131e-005
Heightened Def Con from 1.48131e-005 to 1.48151e-005
Heightened Def Con from 1.48152e-005 to 1.48152e-005
Heightened Def Con from 1.48152e-005 to 1.48162e-005
Heightened Def Con from 1.48163e-005 to 1.48183e-005
Heightened Def Con from 1.48219e-005 to 1.48229e-005
Heightened Def Con from 1.48229e-005 to 1.48229e-005
Heightened Def Con from 1.48229e-005 to 1.48229e-005
Heightened Def Con from 1.4823e-005 to 1.4823e-005
Heightened Def Con from 1.4823e-005 to 1.4823e-005
Heightened Def Con from 1.48231e-005 to 1.48241e-005
Heightened Def Con from 1.48241e-005 to 1.48241e-005
Heightened Def Con from 1.48242e-005 to 1.48252e-005
Heightened Def Con from 1.48253e-005 to 1.48253e-005
Heightened Def Con from 1.48253e-005 to 1.48273e-005
Heightened Def Con from 1.48274e-005 to 1.48294e-005
Heightened Def Con from 1.48295e-005 to 1.48295e-005
Heightened Def Con from 1.48295e-005 to 1.48295e-005
Heightened Def Con from 1.48295e-005 to 1.48295e-005
Heightened Def Con from 1.48296e-005 to 1.48306e-005
Heightened Def Con from 1.48306e-005 to 1.48316e-005
Heightened Def Con from 1.48316e-005 to 1.48317e-005
Heightened Def Con from 1.48317e-005 to 1.48317e-005
Heightened Def Con from 1.48318e-005 to 1.48318e-005
Heightened Def Con from 1.48318e-005 to 1.48318e-005
Heightened Def Con from 1.48319e-005 to 1.48319e-005
Heightened Def Con from 1.48319e-005 to 1.48319e-005
Heightened Def Con from 1.48319e-005 to 1.48339e-005
Heightened Def Con from 1.48339e-005 to 1.48339e-005
Heightened Def Con from 1.4834e-005 to 1.4834e-005
Heightened Def Con from 1.4834e-005 to 1.4836e-005
Heightened Def Con from 1.48361e-005 to 1.48361e-005
Heightened Def Con from 1.48361e-005 to 1.48381e-005
Heightened Def Con from 1.48383e-005 to 1.48383e-005
Heightened Def Con from 1.48384e-005 to 1.48384e-005
Heightened Def Con from 1.48385e-005 to 1.48385e-005
Heightened Def Con from 1.48385e-005 to 1.48385e-005
Heightened Def Con from 1.48386e-005 to 1.48396e-005
Heightened Def Con from 1.48397e-005 to 1.48397e-005
Heightened Def Con from 1.48398e-005 to 1.48398e-005
Heightened Def Con from 1.48399e-005 to 1.48399e-005
Heightened Def Con from 1.484e-005 to 1.484e-005
Heightened Def Con from 1.484e-005 to 1.4842e-005
Heightened Def Con from 1.48422e-005 to 1.48432e-005
Heightened Def Con from 1.48433e-005 to 1.48443e-005
Heightened Def Con from 1.48443e-005 to 1.48443e-005
Heightened Def Con from 1.48443e-005 to 1.48453e-005
Heightened Def Con from 1.48453e-005 to 1.48453e-005
Heightened Def Con from 1.48454e-005 to 1.48454e-005
Heightened Def Con from 1.48454e-005 to 1.48454e-005
Heightened Def Con from 1.48454e-005 to 1.48474e-005
Heightened Def Con from 1.48475e-005 to 1.48485e-005
Heightened Def Con from 1.48485e-005 to 1.48495e-005
Heightened Def Con from 1.48495e-005 to 1.48495e-005
Heightened Def Con from 1.48496e-005 to 1.48516e-005
Heightened Def Con from 1.48517e-005 to 1.48527e-005
Heightened Def Con from 1.48527e-005 to 1.48547e-005
Heightened Def Con from 1.48583e-005 to 1.48583e-005
Heightened Def Con from 1.48583e-005 to 1.48583e-005
Heightened Def Con from 1.48585e-005 to 1.48585e-005
Heightened Def Con from 1.48586e-005 to 1.48586e-005
Heightened Def Con from 1.48586e-005 to 1.48586e-005
Heightened Def Con from 1.48588e-005 to 1.48608e-005
Heightened Def Con from 1.48679e-005 to 1.48699e-005
Heightened Def Con from 1.48734e-005 to 1.48744e-005
Heightened Def Con from 1.48745e-005 to 1.48765e-005
Heightened Def Con from 1.48871e-005 to 1.48871e-005
Heightened Def Con from 1.48871e-005 to 1.48871e-005
Heightened Def Con from 1.48871e-005 to 1.48871e-005
Heightened Def Con from 1.48873e-005 to 1.48893e-005
Heightened Def Con from 1.48929e-005 to 1.48929e-005
Heightened Def Con from 1.4893e-005 to 1.4893e-005
Heightened Def Con from 1.4893e-005 to 1.48941e-005
Heightened Def Con from 1.48942e-005 to 1.48962e-005
Heightened Def Con from 1.48964e-005 to 1.48984e-005
Heightened Def Con from 1.48985e-005 to 1.48995e-005
Heightened Def Con from 1.48996e-005 to 1.49016e-005
Heightened Def Con from 1.49089e-005 to 1.49089e-005
Heightened Def Con from 1.4909e-005 to 1.4911e-005
Heightened Def Con from 1.4911e-005 to 1.4913e-005
Heightened Def Con from 1.49132e-005 to 1.49134e-005
Heightened Def Con from 1.49134e-005 to 1.49134e-005
Heightened Def Con from 1.49134e-005 to 1.49134e-005
Heightened Def Con from 1.49134e-005 to 1.49134e-005
Heightened Def Con from 1.49134e-005 to 1.49134e-005
Heightened Def Con from 1.49135e-005 to 1.49135e-005
Heightened Def Con from 1.49135e-005 to 1.49135e-005
Heightened Def Con from 1.49135e-005 to 1.49135e-005
Heightened Def Con from 1.49135e-005 to 1.49135e-005
Heightened Def Con from 1.49135e-005 to 1.49145e-005
Heightened Def Con from 1.49146e-005 to 1.49156e-005
Heightened Def Con from 1.49157e-005 to 1.49157e-005
Heightened Def Con from 1.49157e-005 to 1.49157e-005
Heightened Def Con from 1.49157e-005 to 1.49157e-005
Heightened Def Con from 1.49157e-005 to 1.49157e-005
Heightened Def Con from 1.49157e-005 to 1.49157e-005
Heightened Def Con from 1.49158e-005 to 1.49168e-005
Heightened Def Con from 1.49168e-005 to 1.49178e-005
Heightened Def Con from 1.49178e-005 to 1.49188e-005
Heightened Def Con from 1.49188e-005 to 1.49188e-005
Heightened Def Con from 1.49188e-005 to 1.49198e-005
Heightened Def Con from 1.49198e-005 to 1.49208e-005
Heightened Def Con from 1.49208e-005 to 1.49218e-005
Heightened Def Con from 1.49219e-005 to 1.49219e-005
Heightened Def Con from 1.49219e-005 to 1.49229e-005
Heightened Def Con from 1.4923e-005 to 1.4924e-005
Heightened Def Con from 1.49241e-005 to 1.49241e-005
Heightened Def Con from 1.49241e-005 to 1.49241e-005
Heightened Def Con from 1.49242e-005 to 1.49252e-005
Heightened Def Con from 1.49252e-005 to 1.49272e-005
Heightened Def Con from 1.49309e-005 to 1.49319e-005
Heightened Def Con from 1.49319e-005 to 1.49329e-005
Heightened Def Con from 1.49329e-005 to 1.49349e-005
Heightened Def Con from 1.4935e-005 to 1.4935e-005
Heightened Def Con from 1.49351e-005 to 1.49361e-005
Heightened Def Con from 1.49362e-005 to 1.49362e-005
Heightened Def Con from 1.49362e-005 to 1.49362e-005
Heightened Def Con from 1.49363e-005 to 1.49373e-005

Date: Mon Jan 11 18:25:34 2021
Total elapsed time: 11.420 seconds.

tnom = 27
temp = 27
method = modified trap
totiter = 1316510
traniter = 1316488
tranpoints = 254541
accept = 175928
rejected = 79951
matrix size = 52
fillins = 76
solver = Normal
Matrix Compiler1: 6.86 KB object code size  1.7/1.0/[0.4]
Matrix Compiler2: 5.43 KB object code size  0.6/0.8/[0.5]

